32
0-5-6-7-12_optfreq.log	Energy: -482701.1791238
C          0.00000       -1.23575       -3.58169
C          0.00000        0.00000       -2.87979
C          0.00000       -2.42906       -2.89027
C          0.00000        0.00000       -1.44134
C         -0.00000        1.23575       -3.58169
C          0.00000       -1.25290       -0.73900
C         -0.00000        1.25290       -0.73900
C          0.00000       -2.43431       -1.48095
C          0.00000       -1.25290        0.73900
C         -0.00000        2.42906       -2.89027
C         -0.00000        2.43431       -1.48095
C         -0.00000        1.25290        0.73900
C          0.00000       -0.00000        1.44134
C         -0.00000        2.43431        1.48095
C          0.00000       -0.00000        2.87979
C          0.00000       -2.43431        1.48095
C          0.00000       -1.23575        3.58169
C         -0.00000        1.23575        3.58169
C          0.00000       -2.42906        2.89027
C         -0.00000        2.42906        2.89027
H          0.00000       -1.22126       -4.66742
H          0.00000       -3.37335       -3.42515
H         -0.00000        1.22126       -4.66742
H          0.00000       -3.39363       -0.97862
H         -0.00000        3.37335       -3.42515
H         -0.00000        3.39363       -0.97862
H         -0.00000        3.39363        0.97862
H          0.00000       -3.39363        0.97862
H          0.00000       -1.22126        4.66742
H         -0.00000        1.22126        4.66742
H          0.00000       -3.37335        3.42515
H         -0.00000        3.37335        3.42515
